# Packages
 &PACKAGES
 useRBCS=.TRUE.,
#useMNC=.TRUE.,
 useDiagnostics=.TRUE.,
 &